24
symmetry c2h
C       -1.769551888      0.156724822      0.000000000
N       -0.475663645     -0.417456886      0.000000000
N        0.475663645      0.417456886      0.000000000
C        1.769551888     -0.156724822      0.000000000
C        2.031675700     -1.540044377      0.000000000
C        3.347296056     -1.988625153      0.000000000
C        4.410639727     -1.073706124      0.000000000
C        4.151895945      0.299414731      0.000000000
C        2.834815735      0.757363110      0.000000000
C       -2.031675700      1.540044377      0.000000000
C       -3.347296056      1.988625153      0.000000000
C       -4.410639727      1.073706124      0.000000000
C       -4.151895945     -0.299414731      0.000000000
C       -2.834815735     -0.757363110      0.000000000
H        1.191235012     -2.233173035      0.000000000
H        3.555197459     -3.059913972      0.000000000
H        5.439996385     -1.435788098      0.000000000
H        4.977039441      1.012651080      0.000000000
H        2.599139962      1.822270955      0.000000000
H       -1.191235012      2.233173035      0.000000000
H       -3.555197459      3.059913972      0.000000000
H       -5.439996385      1.435788098      0.000000000
H       -4.977039441     -1.012651080      0.000000000
H       -2.599139962     -1.822270955      0.000000000

